Version 4
SHEET 1 3924 824
WIRE 640 -464 624 -464
WIRE 1040 -464 640 -464
WIRE 1168 -464 1040 -464
WIRE 1264 -464 1168 -464
WIRE 1344 -464 1264 -464
WIRE 1552 -464 1504 -464
WIRE 1712 -464 1552 -464
WIRE 1808 -464 1712 -464
WIRE 1984 -464 1888 -464
WIRE 2064 -464 1984 -464
WIRE 2064 -448 2064 -464
WIRE 1712 -432 1712 -464
WIRE 2064 -432 2064 -448
WIRE 1264 -416 1264 -464
WIRE 2064 -368 2064 -384
WIRE 1168 -336 1168 -464
WIRE 1712 -320 1712 -352
WIRE 1264 -288 1264 -336
WIRE 1328 -288 1264 -288
WIRE 1424 -288 1424 -368
WIRE 1424 -288 1328 -288
WIRE 640 -272 640 -464
WIRE 1040 -272 1040 -464
WIRE 1328 -256 1328 -288
WIRE 1664 -256 1616 -256
WIRE 1984 -256 1984 -464
WIRE 1984 -256 1760 -256
WIRE 1424 -240 1424 -288
WIRE -256 -176 -320 -176
WIRE -144 -176 -192 -176
WIRE 1984 -176 1984 -256
WIRE 1168 -144 1168 -272
WIRE 1328 -144 1328 -176
WIRE 1328 -144 1168 -144
WIRE 1424 -144 1424 -176
WIRE 1424 -144 1328 -144
WIRE 1328 -128 1328 -144
WIRE -320 -64 -320 -176
WIRE -272 -64 -320 -64
WIRE -144 -64 -144 -176
WIRE -144 -64 -192 -64
WIRE -112 -64 -144 -64
WIRE 16 -64 -32 -64
WIRE 640 -64 640 -192
WIRE 640 -64 16 -64
WIRE 736 -64 640 -64
WIRE 1040 -64 1040 -192
WIRE 1232 -64 1040 -64
WIRE 1296 -64 1232 -64
WIRE 1616 -64 1536 -64
WIRE 1760 -64 1680 -64
WIRE -320 -48 -320 -64
WIRE -144 -32 -144 -64
WIRE 16 -32 16 -64
WIRE 1040 -32 1040 -64
WIRE 1984 0 1984 -112
WIRE 640 16 640 -64
WIRE 736 16 736 0
WIRE 1296 16 1296 0
WIRE 1536 32 1536 -64
WIRE 1616 32 1536 32
WIRE 1760 32 1760 -64
WIRE 1760 32 1696 32
WIRE -336 80 -464 80
WIRE -288 80 -336 80
WIRE -144 80 -144 48
WIRE -144 80 -224 80
WIRE 16 80 16 32
WIRE 16 80 -144 80
WIRE 352 80 16 80
WIRE 448 80 416 80
WIRE 480 80 448 80
WIRE 592 80 560 80
WIRE 1232 80 1232 -64
WIRE 640 128 640 112
WIRE 736 128 640 128
WIRE 784 128 736 128
WIRE 1040 128 1040 48
WIRE 1040 128 848 128
WIRE 1168 128 1040 128
WIRE 1536 128 1536 32
WIRE 1616 128 1536 128
WIRE 1760 128 1760 32
WIRE 1760 128 1696 128
WIRE 640 144 640 128
WIRE 1040 160 1040 128
WIRE 1536 176 1536 128
WIRE 1536 176 1232 176
WIRE 1760 176 1760 128
WIRE 1840 176 1760 176
WIRE 1984 176 1984 80
WIRE 1984 176 1904 176
WIRE -464 240 -464 80
WIRE 1536 240 1232 240
WIRE 1600 240 1536 240
WIRE 1760 240 1760 176
WIRE 1760 240 1680 240
WIRE -336 256 -336 80
WIRE 448 256 448 80
WIRE 640 256 640 224
WIRE 16 272 16 80
WIRE 736 288 736 128
WIRE 784 288 736 288
WIRE 1040 288 1040 240
WIRE 1040 288 848 288
WIRE 1168 288 1040 288
WIRE 1984 304 1984 176
WIRE 1536 336 1536 240
WIRE 1600 336 1536 336
WIRE 1760 336 1760 240
WIRE 1760 336 1680 336
WIRE 1040 368 1040 288
WIRE 640 384 640 336
WIRE 1536 432 1536 336
WIRE 1616 432 1536 432
WIRE 1760 432 1760 336
WIRE 1760 432 1680 432
WIRE -464 512 -464 320
WIRE -336 512 -336 336
WIRE -336 512 -464 512
WIRE 16 512 16 336
WIRE 16 512 -336 512
WIRE 448 512 448 336
WIRE 448 512 16 512
WIRE 640 512 640 464
WIRE 640 512 448 512
WIRE 1040 512 1040 448
WIRE 1040 512 640 512
WIRE 1232 512 1232 336
WIRE 1232 512 1040 512
WIRE 1984 512 1984 384
WIRE 1984 512 1232 512
WIRE -464 528 -464 512
FLAG -464 80 Vin
FLAG -320 -48 0
FLAG -464 528 0
FLAG 736 16 0
FLAG 1296 16 0
FLAG 1984 176 Vout
FLAG 1328 -128 0
FLAG 1616 -256 Q_OUT
IOPIN 1616 -256 In
FLAG 624 -464 Q_OUT
IOPIN 624 -464 In
FLAG 2064 -368 0
FLAG 1552 -464 LM_IN
FLAG 1264 -464 LM_OUT
SYMBOL voltage -464 224 R0
WINDOW 3 -216 97 Left 2
WINDOW 123 -213 124 Left 2
WINDOW 39 0 0 Left 0
SYMATTR Value SINE(0 1 30Meg)
SYMATTR Value2 AC 1
SYMATTR InstName V1
SYMBOL cap 416 64 R90
WINDOW 0 0 32 VBottom 2
WINDOW 3 32 32 VTop 2
SYMATTR InstName C1
SYMATTR Value 220p
SYMBOL res 432 240 R0
SYMATTR InstName R1
SYMATTR Value 4.7Meg
SYMBOL njf 592 16 R0
SYMATTR InstName J1
SYMATTR Value U310
SYMBOL res 624 128 R0
SYMATTR InstName R2
SYMATTR Value 39
SYMBOL ind 624 240 R0
SYMATTR InstName L1
SYMATTR Value 1.5m
SYMBOL cap 848 112 R90
WINDOW 0 0 32 VBottom 2
WINDOW 3 32 32 VTop 2
SYMATTR InstName C2
SYMATTR Value 0.1µ
SYMBOL cap 752 0 R180
WINDOW 0 -41 31 Left 2
WINDOW 3 -52 2 Left 2
SYMATTR InstName C3
SYMATTR Value 0.1µ
SYMBOL voltage 1984 288 R0
WINDOW 3 41 77 Left 2
WINDOW 123 0 0 Left 0
WINDOW 39 30 107 Left 2
SYMATTR Value 30
SYMATTR SpiceLine Rser=50
SYMATTR InstName V2
SYMBOL res -352 240 R0
SYMATTR InstName R4
SYMATTR Value 4.7Meg
SYMBOL cap -224 64 R90
WINDOW 0 0 32 VBottom 2
WINDOW 3 32 32 VTop 2
SYMATTR InstName C4
SYMATTR Value 220p
SYMBOL res -160 -48 R0
SYMATTR InstName R5
SYMATTR Value 2.2Meg
SYMBOL res -176 -80 R90
WINDOW 0 0 56 VBottom 2
WINDOW 3 32 56 VTop 2
SYMATTR InstName R6
SYMATTR Value 10k
SYMBOL res -16 -80 R90
WINDOW 0 0 56 VBottom 2
WINDOW 3 32 56 VTop 2
SYMATTR InstName R7
SYMATTR Value 10k
SYMBOL cap -192 -192 R90
WINDOW 0 0 32 VBottom 2
WINDOW 3 32 32 VTop 2
SYMATTR InstName C5
SYMATTR Value 0.1µ
SYMBOL schottky 32 32 R180
WINDOW 0 -45 57 Left 2
WINDOW 3 -143 26 Left 2
SYMATTR InstName D1
SYMATTR Value 5082-2800
SYMATTR Description Diode
SYMATTR Type diode
SYMBOL schottky 32 336 R180
WINDOW 0 51 44 Left 2
WINDOW 3 24 0 Left 2
SYMATTR InstName D2
SYMATTR Value 5082-2800
SYMATTR Description Diode
SYMATTR Type diode
SYMBOL res 576 64 R90
WINDOW 0 0 56 VBottom 2
WINDOW 3 32 56 VTop 2
SYMATTR InstName R8
SYMATTR Value 22
SYMBOL ind 624 -288 R0
WINDOW 0 41 38 Left 2
SYMATTR InstName L2
SYMATTR Value 1.5m
SYMBOL ind 624 368 R0
SYMATTR InstName L3
SYMATTR Value 1.5m
SYMBOL cap 848 272 R90
WINDOW 0 0 32 VBottom 2
WINDOW 3 32 32 VTop 2
SYMATTR InstName C6
SYMATTR Value 0.1µ
SYMBOL res 1024 144 R0
SYMATTR InstName R3
SYMATTR Value 68k
SYMBOL res 1024 352 R0
SYMATTR InstName R9
SYMATTR Value 27k
SYMBOL pnp 1168 336 M180
SYMATTR InstName Q1
SYMATTR Value 2N2907
SYMBOL npn 1168 80 R0
SYMATTR InstName Q2
SYMATTR Value 2N2222
SYMBOL res 1696 224 R90
WINDOW 0 0 56 VBottom 2
WINDOW 3 32 56 VTop 2
SYMATTR InstName R10
SYMATTR Value 100
SYMBOL res 1696 320 R90
WINDOW 0 0 56 VBottom 2
WINDOW 3 32 56 VTop 2
SYMATTR InstName R11
SYMATTR Value 2.7k
SYMBOL cap 1680 416 R90
WINDOW 0 0 32 VBottom 2
WINDOW 3 32 32 VTop 2
SYMATTR InstName C7
SYMATTR Value 12p
SYMBOL res 1600 144 R270
WINDOW 0 32 56 VTop 2
WINDOW 3 0 56 VBottom 2
SYMATTR InstName R12
SYMATTR Value 100
SYMBOL res 1600 48 R270
WINDOW 0 32 56 VTop 2
WINDOW 3 0 56 VBottom 2
SYMATTR InstName R13
SYMATTR Value 2.7k
SYMBOL cap 1616 -48 R270
WINDOW 0 32 32 VTop 2
WINDOW 3 0 32 VBottom 2
SYMATTR InstName C8
SYMATTR Value 12p
SYMBOL res 1024 -48 R0
SYMATTR InstName R14
SYMATTR Value 27k
SYMBOL ind 1024 -288 R0
SYMATTR InstName L4
SYMATTR Value 1.5m
SYMBOL cap 1312 0 R180
WINDOW 0 -41 31 Left 2
WINDOW 3 -52 2 Left 2
SYMATTR InstName C9
SYMATTR Value 0.1µ
SYMBOL cap 1904 160 R90
WINDOW 0 0 32 VBottom 2
WINDOW 3 32 32 VTop 2
SYMATTR InstName C10
SYMATTR Value 1µ
SYMBOL ind 1968 -16 R0
SYMATTR InstName L5
SYMATTR Value 1.5m
SYMBOL diode 2000 -112 R180
WINDOW 0 -46 37 Left 2
WINDOW 3 -90 -6 Left 2
SYMATTR InstName D3
SYMATTR Value 1N4007
SYMBOL res 1904 -480 R90
WINDOW 0 0 56 VBottom 2
WINDOW 3 32 56 VTop 2
SYMATTR InstName R15
SYMATTR Value 33
SYMBOL LM317 1424 -432 M0
SYMATTR InstName U1
SYMBOL cap 1408 -240 R0
SYMATTR InstName C11
SYMATTR Value 10µ
SYMBOL cap 1152 -336 R0
SYMATTR InstName C12
SYMATTR Value 10µ
SYMBOL res 1248 -432 R0
SYMATTR InstName R16
SYMATTR Value 240
SYMBOL res 1312 -272 R0
SYMATTR InstName R17
SYMATTR Value 2k
SYMBOL pnp 1664 -320 M90
WINDOW 0 115 35 VRight 2
WINDOW 3 85 9 VRight 2
SYMATTR InstName Q3
SYMATTR Value 2N2907
SYMBOL res 1696 -448 R0
SYMATTR InstName R18
SYMATTR Value 2.2k
SYMBOL cap 2048 -448 R0
SYMATTR InstName C13
SYMATTR Value 10µ
TEXT -704 760 Left 2 !.tran 100u
TEXT -704 808 Left 2 !;ac oct 1000 1Meg 50Meg
TEXT -424 -272 Left 4 ;Etapa de protección
TEXT 512 -528 Left 4 ;Etapa JFET
TEXT 1224 552 Left 4 ;Etapa acoplo de impedancias
TEXT 1448 -592 Left 4 ;Etapa del regulador
LINE Normal 928 -576 304 -576
LINE Normal 304 592 304 -576
LINE Normal 928 592 304 592
LINE Normal 928 -576 928 592
LINE Normal 992 -512 992 592
LINE Normal 1136 -512 992 -512
LINE Normal 1136 -96 1136 -512
LINE Normal 1536 -96 1136 -96
LINE Normal 1536 -144 1536 -96
LINE Normal 1744 -144 1536 -144
LINE Normal 1744 -96 1744 -144
LINE Normal 1936 -96 1744 -96
LINE Normal 1936 592 1936 -96
LINE Normal 992 592 1936 592
RECTANGLE Normal 240 592 -752 -320
